data/feeders/R2-12.47-2.glm
clock {
     timezone EST+5EDT;
     timestamp '2000-01-01 0:00:00';
     stoptime '2000-01-01 0:01:00';
}
#set profiler=1
module tape;
module powerflow{
  solver_method NR;
  default_maximum_voltage_error 1e-6;
};
object transformer_configuration {
  name XF1_POLETOP_AS_25;
  power_rating 25.00;
  powerA_rating 25.00;
  powerB_rating 0.0;
  powerC_rating 0.0;
  install_type POLETOP;
  connect_type SINGLE_PHASE_CENTER_TAPPED;
  primary_voltage 7200.0;
  secondary_voltage 120.0;
  resistance 0.00800;
  resistance1 0.01600;
  resistance2 0.01600;
  reactance 0.01208;
  reactance1 0.00604;
  reactance2 0.00604;
  shunt_resistance 192.31;
  shunt_reactance 51.81;
}
object transformer_configuration {
  name XF1_POLETOP_AS_5;
  power_rating 5.00;
  powerA_rating 5.00;
  powerB_rating 0.0;
  powerC_rating 0.0;
  install_type POLETOP;
  connect_type SINGLE_PHASE_CENTER_TAPPED;
  primary_voltage 7200.0;
  secondary_voltage 120.0;
  resistance 0.01050;
  resistance1 0.02100;
  resistance2 0.02100;
  reactance 0.01224;
  reactance1 0.00612;
  reactance2 0.00612;
  shunt_resistance 111.11;
  shunt_reactance 29.59;
}
object transformer_configuration {
  name XF1_POLETOP_BS_5;
  power_rating 5.00;
  powerA_rating 0.0;
  powerB_rating 5.00;
  powerC_rating 0.0;
  install_type POLETOP;
  connect_type SINGLE_PHASE_CENTER_TAPPED;
  primary_voltage 7200.0;
  secondary_voltage 120.0;
  resistance 0.01050;
  resistance1 0.02100;
  resistance2 0.02100;
  reactance 0.01224;
  reactance1 0.00612;
  reactance2 0.00612;
  shunt_resistance 111.11;
  shunt_reactance 29.59;
}
object transformer_configuration {
  name XF1_POLETOP_CS_15;
  power_rating 15.00;
  powerA_rating 0.0;
  powerB_rating 0.0;
  powerC_rating 15.00;
  install_type POLETOP;
  connect_type SINGLE_PHASE_CENTER_TAPPED;
  primary_voltage 7200.0;
  secondary_voltage 120.0;
  resistance 0.00850;
  resistance1 0.01700;
  resistance2 0.01700;
  reactance 0.01176;
  reactance1 0.00588;
  reactance2 0.00588;
  shunt_resistance 166.67;
  shunt_reactance 39.53;
}
object transformer_configuration {
  name XF1_POLETOP_AS_50;
  power_rating 50.00;
  powerA_rating 50.00;
  powerB_rating 0.0;
  powerC_rating 0.0;
  install_type POLETOP;
  connect_type SINGLE_PHASE_CENTER_TAPPED;
  primary_voltage 7200.0;
  secondary_voltage 120.0;
  resistance 0.00650;
  resistance1 0.01300;
  resistance2 0.01300;
  reactance 0.01416;
  reactance1 0.00708;
  reactance2 0.00708;
  shunt_resistance 222.22;
  shunt_reactance 64.94;
}
object transformer_configuration {
  name XF1_POLETOP_CS_25;
  power_rating 25.00;
  powerA_rating 0.0;
  powerB_rating 0.0;
  powerC_rating 25.00;
  install_type POLETOP;
  connect_type SINGLE_PHASE_CENTER_TAPPED;
  primary_voltage 7200.0;
  secondary_voltage 120.0;
  resistance 0.00800;
  resistance1 0.01600;
  resistance2 0.01600;
  reactance 0.01208;
  reactance1 0.00604;
  reactance2 0.00604;
  shunt_resistance 192.31;
  shunt_reactance 51.81;
}
object transformer_configuration {
  name XF1_POLETOP_CS_100;
  power_rating 100.00;
  powerA_rating 0.0;
  powerB_rating 0.0;
  powerC_rating 100.00;
  install_type POLETOP;
  connect_type SINGLE_PHASE_CENTER_TAPPED;
  primary_voltage 7200.0;
  secondary_voltage 120.0;
  resistance 0.00600;
  resistance1 0.01200;
  resistance2 0.01200;
  reactance 0.01752;
  reactance1 0.00876;
  reactance2 0.00876;
  shunt_resistance 250.00;
  shunt_reactance 68.97;
}
object transformer_configuration {
  name XF1_POLETOP_BS_50;
  power_rating 50.00;
  powerA_rating 0.0;
  powerB_rating 50.00;
  powerC_rating 0.0;
  install_type POLETOP;
  connect_type SINGLE_PHASE_CENTER_TAPPED;
  primary_voltage 7200.0;
  secondary_voltage 120.0;
  resistance 0.00650;
  resistance1 0.01300;
  resistance2 0.01300;
  reactance 0.01416;
  reactance1 0.00708;
  reactance2 0.00708;
  shunt_resistance 222.22;
  shunt_reactance 64.94;
}
object transformer_configuration {
  name XF1_POLETOP_CS_50;
  power_rating 50.00;
  powerA_rating 0.0;
  powerB_rating 0.0;
  powerC_rating 50.00;
  install_type POLETOP;
  connect_type SINGLE_PHASE_CENTER_TAPPED;
  primary_voltage 7200.0;
  secondary_voltage 120.0;
  resistance 0.00650;
  resistance1 0.01300;
  resistance2 0.01300;
  reactance 0.01416;
  reactance1 0.00708;
  reactance2 0.00708;
  shunt_resistance 222.22;
  shunt_reactance 64.94;
}
object transformer_configuration {
  name XF1_PADMOUNT_CS_50;
  power_rating 50.00;
  powerA_rating 0.0;
  powerB_rating 0.0;
  powerC_rating 50.00;
  install_type PADMOUNT;
  connect_type SINGLE_PHASE_CENTER_TAPPED;
  primary_voltage 7200.0;
  secondary_voltage 120.0;
  resistance 0.00650;
  resistance1 0.01300;
  resistance2 0.01300;
  reactance 0.01416;
  reactance1 0.00708;
  reactance2 0.00708;
  shunt_resistance 222.22;
  shunt_reactance 64.94;
}
object transformer_configuration {
  name XF1_POLETOP_BS_25;
  power_rating 25.00;
  powerA_rating 0.0;
  powerB_rating 25.00;
  powerC_rating 0.0;
  install_type POLETOP;
  connect_type SINGLE_PHASE_CENTER_TAPPED;
  primary_voltage 7200.0;
  secondary_voltage 120.0;
  resistance 0.00800;
  resistance1 0.01600;
  resistance2 0.01600;
  reactance 0.01208;
  reactance1 0.00604;
  reactance2 0.00604;
  shunt_resistance 192.31;
  shunt_reactance 51.81;
}
object transformer_configuration {
  name XF1_PADMOUNT_BS_50;
  power_rating 50.00;
  powerA_rating 0.0;
  powerB_rating 50.00;
  powerC_rating 0.0;
  install_type PADMOUNT;
  connect_type SINGLE_PHASE_CENTER_TAPPED;
  primary_voltage 7200.0;
  secondary_voltage 120.0;
  resistance 0.00650;
  resistance1 0.01300;
  resistance2 0.01300;
  reactance 0.01416;
  reactance1 0.00708;
  reactance2 0.00708;
  shunt_resistance 222.22;
  shunt_reactance 64.94;
}
object transformer_configuration {
  name XF1_PADMOUNT_CS_37p5;
  power_rating 37.50;
  powerA_rating 0.0;
  powerB_rating 0.0;
  powerC_rating 37.50;
  install_type PADMOUNT;
  connect_type SINGLE_PHASE_CENTER_TAPPED;
  primary_voltage 7200.0;
  secondary_voltage 120.0;
  resistance 0.00725;
  resistance1 0.01450;
  resistance2 0.01450;
  reactance 0.01320;
  reactance1 0.00660;
  reactance2 0.00660;
  shunt_resistance 212.77;
  shunt_reactance 57.47;
}
object transformer_configuration {
  name XF1_PADMOUNT_BS_25;
  power_rating 25.00;
  powerA_rating 0.0;
  powerB_rating 25.00;
  powerC_rating 0.0;
  install_type PADMOUNT;
  connect_type SINGLE_PHASE_CENTER_TAPPED;
  primary_voltage 7200.0;
  secondary_voltage 120.0;
  resistance 0.00800;
  resistance1 0.01600;
  resistance2 0.01600;
  reactance 0.01208;
  reactance1 0.00604;
  reactance2 0.00604;
  shunt_resistance 192.31;
  shunt_reactance 51.81;
}
object transformer_configuration {
  name XF1_PADMOUNT_CS_5;
  power_rating 5.00;
  powerA_rating 0.0;
  powerB_rating 0.0;
  powerC_rating 5.00;
  install_type PADMOUNT;
  connect_type SINGLE_PHASE_CENTER_TAPPED;
  primary_voltage 7200.0;
  secondary_voltage 120.0;
  resistance 0.01050;
  resistance1 0.02100;
  resistance2 0.02100;
  reactance 0.01224;
  reactance1 0.00612;
  reactance2 0.00612;
  shunt_resistance 111.11;
  shunt_reactance 29.59;
}
object transformer_configuration {
  name XF1_PADMOUNT_AS_25;
  power_rating 25.00;
  powerA_rating 25.00;
  powerB_rating 0.0;
  powerC_rating 0.0;
  install_type PADMOUNT;
  connect_type SINGLE_PHASE_CENTER_TAPPED;
  primary_voltage 7200.0;
  secondary_voltage 120.0;
  resistance 0.00800;
  resistance1 0.01600;
  resistance2 0.01600;
  reactance 0.01208;
  reactance1 0.00604;
  reactance2 0.00604;
  shunt_resistance 192.31;
  shunt_reactance 51.81;
}
object transformer_configuration {
  name XF1_PADMOUNT_AS_50;
  power_rating 50.00;
  powerA_rating 50.00;
  powerB_rating 0.0;
  powerC_rating 0.0;
  install_type PADMOUNT;
  connect_type SINGLE_PHASE_CENTER_TAPPED;
  primary_voltage 7200.0;
  secondary_voltage 120.0;
  resistance 0.00650;
  resistance1 0.01300;
  resistance2 0.01300;
  reactance 0.01416;
  reactance1 0.00708;
  reactance2 0.00708;
  shunt_resistance 222.22;
  shunt_reactance 64.94;
}
object transformer_configuration {
  name XF1_POLETOP_AS_167;
  power_rating 167.00;
  powerA_rating 167.00;
  powerB_rating 0.0;
  powerC_rating 0.0;
  install_type POLETOP;
  connect_type SINGLE_PHASE_CENTER_TAPPED;
  primary_voltage 7200.0;
  secondary_voltage 120.0;
  resistance 0.00575;
  resistance1 0.01150;
  resistance2 0.01150;
  reactance 0.02216;
  reactance1 0.01108;
  reactance2 0.01108;
  shunt_resistance 263.16;
  shunt_reactance 60.24;
}
object transformer_configuration {
  name XF1_POLETOP_BS_167;
  power_rating 167.00;
  powerA_rating 0.0;
  powerB_rating 167.00;
  powerC_rating 0.0;
  install_type POLETOP;
  connect_type SINGLE_PHASE_CENTER_TAPPED;
  primary_voltage 7200.0;
  secondary_voltage 120.0;
  resistance 0.00575;
  resistance1 0.01150;
  resistance2 0.01150;
  reactance 0.02216;
  reactance1 0.01108;
  reactance2 0.01108;
  shunt_resistance 263.16;
  shunt_reactance 60.24;
}
object transformer_configuration {
  name XF1_POLETOP_CS_167;
  power_rating 167.00;
  powerA_rating 0.0;
  powerB_rating 0.0;
  powerC_rating 167.00;
  install_type POLETOP;
  connect_type SINGLE_PHASE_CENTER_TAPPED;
  primary_voltage 7200.0;
  secondary_voltage 120.0;
  resistance 0.00575;
  resistance1 0.01150;
  resistance2 0.01150;
  reactance 0.02216;
  reactance1 0.01108;
  reactance2 0.01108;
  shunt_resistance 263.16;
  shunt_reactance 60.24;
}
object transformer_configuration {
  name XF1_POLETOP_BS_15;
  power_rating 15.00;
  powerA_rating 0.0;
  powerB_rating 15.00;
  powerC_rating 0.0;
  install_type POLETOP;
  connect_type SINGLE_PHASE_CENTER_TAPPED;
  primary_voltage 7200.0;
  secondary_voltage 120.0;
  resistance 0.00850;
  resistance1 0.01700;
  resistance2 0.01700;
  reactance 0.01176;
  reactance1 0.00588;
  reactance2 0.00588;
  shunt_resistance 166.67;
  shunt_reactance 39.53;
}
object transformer_configuration {
  name XF1_POLETOP_BS_37p5;
  power_rating 37.50;
  powerA_rating 0.0;
  powerB_rating 37.50;
  powerC_rating 0.0;
  install_type POLETOP;
  connect_type SINGLE_PHASE_CENTER_TAPPED;
  primary_voltage 7200.0;
  secondary_voltage 120.0;
  resistance 0.00725;
  resistance1 0.01450;
  resistance2 0.01450;
  reactance 0.01320;
  reactance1 0.00660;
  reactance2 0.00660;
  shunt_resistance 212.77;
  shunt_reactance 57.47;
}
object transformer_configuration {
  name XF1_POLETOP_CS_5;
  power_rating 5.00;
  powerA_rating 0.0;
  powerB_rating 0.0;
  powerC_rating 5.00;
  install_type POLETOP;
  connect_type SINGLE_PHASE_CENTER_TAPPED;
  primary_voltage 7200.0;
  secondary_voltage 120.0;
  resistance 0.01050;
  resistance1 0.02100;
  resistance2 0.02100;
  reactance 0.01224;
  reactance1 0.00612;
  reactance2 0.00612;
  shunt_resistance 111.11;
  shunt_reactance 29.59;
}
object transformer_configuration {
  name XF1_POLETOP_AS_37p5;
  power_rating 37.50;
  powerA_rating 37.50;
  powerB_rating 0.0;
  powerC_rating 0.0;
  install_type POLETOP;
  connect_type SINGLE_PHASE_CENTER_TAPPED;
  primary_voltage 7200.0;
  secondary_voltage 120.0;
  resistance 0.00725;
  resistance1 0.01450;
  resistance2 0.01450;
  reactance 0.01320;
  reactance1 0.00660;
  reactance2 0.00660;
  shunt_resistance 212.77;
  shunt_reactance 57.47;
}
object transformer_configuration {
  name XF1_PADMOUNT_AS_15;
  power_rating 15.00;
  powerA_rating 15.00;
  powerB_rating 0.0;
  powerC_rating 0.0;
  install_type PADMOUNT;
  connect_type SINGLE_PHASE_CENTER_TAPPED;
  primary_voltage 7200.0;
  secondary_voltage 120.0;
  resistance 0.00850;
  resistance1 0.01700;
  resistance2 0.01700;
  reactance 0.01176;
  reactance1 0.00588;
  reactance2 0.00588;
  shunt_resistance 166.67;
  shunt_reactance 39.53;
}
object transformer_configuration {
  name XF1_POLETOP_AS_10;
  power_rating 10.00;
  powerA_rating 10.00;
  powerB_rating 0.0;
  powerC_rating 0.0;
  install_type POLETOP;
  connect_type SINGLE_PHASE_CENTER_TAPPED;
  primary_voltage 7200.0;
  secondary_voltage 120.0;
  resistance 0.00950;
  resistance1 0.01900;
  resistance2 0.01900;
  reactance 0.01040;
  reactance1 0.00520;
  reactance2 0.00520;
  shunt_resistance 147.06;
  shunt_reactance 34.25;
}
object transformer_configuration {
  name XF1_POLETOP_AS_15;
  power_rating 15.00;
  powerA_rating 15.00;
  powerB_rating 0.0;
  powerC_rating 0.0;
  install_type POLETOP;
  connect_type SINGLE_PHASE_CENTER_TAPPED;
  primary_voltage 7200.0;
  secondary_voltage 120.0;
  resistance 0.00850;
  resistance1 0.01700;
  resistance2 0.01700;
  reactance 0.01176;
  reactance1 0.00588;
  reactance2 0.00588;
  shunt_resistance 166.67;
  shunt_reactance 39.53;
}
object transformer_configuration {
  name XF1_POLETOP_BS_250;
  power_rating 250.00;
  powerA_rating 0.0;
  powerB_rating 250.00;
  powerC_rating 0.0;
  install_type POLETOP;
  connect_type SINGLE_PHASE_CENTER_TAPPED;
  primary_voltage 7200.0;
  secondary_voltage 120.0;
  resistance 0.00550;
  resistance1 0.01100;
  resistance2 0.01100;
  reactance 0.03080;
  reactance1 0.01540;
  reactance2 0.01540;
  shunt_resistance 277.78;
  shunt_reactance 55.25;
}
object transformer_configuration {
  name XF1_POLETOP_BS_75;
  power_rating 75.00;
  powerA_rating 0.0;
  powerB_rating 75.00;
  powerC_rating 0.0;
  install_type POLETOP;
  connect_type SINGLE_PHASE_CENTER_TAPPED;
  primary_voltage 7200.0;
  secondary_voltage 120.0;
  resistance 0.00625;
  resistance1 0.01250;
  resistance2 0.01250;
  reactance 0.01352;
  reactance1 0.00676;
  reactance2 0.00676;
  shunt_resistance 238.10;
  shunt_reactance 67.11;
}
object transformer_configuration {
  name XF1_POLETOP_AS_100;
  power_rating 100.00;
  powerA_rating 100.00;
  powerB_rating 0.0;
  powerC_rating 0.0;
  install_type POLETOP;
  connect_type SINGLE_PHASE_CENTER_TAPPED;
  primary_voltage 7200.0;
  secondary_voltage 120.0;
  resistance 0.00600;
  resistance1 0.01200;
  resistance2 0.01200;
  reactance 0.01752;
  reactance1 0.00876;
  reactance2 0.00876;
  shunt_resistance 250.00;
  shunt_reactance 68.97;
}
object transformer_configuration {
  name XF1_POLETOP_CS_75;
  power_rating 75.00;
  powerA_rating 0.0;
  powerB_rating 0.0;
  powerC_rating 75.00;
  install_type POLETOP;
  connect_type SINGLE_PHASE_CENTER_TAPPED;
  primary_voltage 7200.0;
  secondary_voltage 120.0;
  resistance 0.00625;
  resistance1 0.01250;
  resistance2 0.01250;
  reactance 0.01352;
  reactance1 0.00676;
  reactance2 0.00676;
  shunt_resistance 238.10;
  shunt_reactance 67.11;
}
object transformer_configuration {
  name XF1_POLETOP_BS_100;
  power_rating 100.00;
  powerA_rating 0.0;
  powerB_rating 100.00;
  powerC_rating 0.0;
  install_type POLETOP;
  connect_type SINGLE_PHASE_CENTER_TAPPED;
  primary_voltage 7200.0;
  secondary_voltage 120.0;
  resistance 0.00600;
  resistance1 0.01200;
  resistance2 0.01200;
  reactance 0.01752;
  reactance1 0.00876;
  reactance2 0.00876;
  shunt_resistance 250.00;
  shunt_reactance 68.97;
}
object transformer_configuration {
  name XF1_POLETOP_AS_75;
  power_rating 75.00;
  powerA_rating 75.00;
  powerB_rating 0.0;
  powerC_rating 0.0;
  install_type POLETOP;
  connect_type SINGLE_PHASE_CENTER_TAPPED;
  primary_voltage 7200.0;
  secondary_voltage 120.0;
  resistance 0.00625;
  resistance1 0.01250;
  resistance2 0.01250;
  reactance 0.01352;
  reactance1 0.00676;
  reactance2 0.00676;
  shunt_resistance 238.10;
  shunt_reactance 67.11;
}
object transformer_configuration {
  name XF1_POLETOP_BS_10;
  power_rating 10.00;
  powerA_rating 0.0;
  powerB_rating 10.00;
  powerC_rating 0.0;
  install_type POLETOP;
  connect_type SINGLE_PHASE_CENTER_TAPPED;
  primary_voltage 7200.0;
  secondary_voltage 120.0;
  resistance 0.00950;
  resistance1 0.01900;
  resistance2 0.01900;
  reactance 0.01040;
  reactance1 0.00520;
  reactance2 0.00520;
  shunt_resistance 147.06;
  shunt_reactance 34.25;
}
object transformer_configuration {
  name XF1_PADMOUNT_AS_10;
  power_rating 10.00;
  powerA_rating 10.00;
  powerB_rating 0.0;
  powerC_rating 0.0;
  install_type PADMOUNT;
  connect_type SINGLE_PHASE_CENTER_TAPPED;
  primary_voltage 7200.0;
  secondary_voltage 120.0;
  resistance 0.00950;
  resistance1 0.01900;
  resistance2 0.01900;
  reactance 0.01040;
  reactance1 0.00520;
  reactance2 0.00520;
  shunt_resistance 147.06;
  shunt_reactance 34.25;
}
object transformer_configuration {
  name XF1_PADMOUNT_BS_5;
  power_rating 5.00;
  powerA_rating 0.0;
  powerB_rating 5.00;
  powerC_rating 0.0;
  install_type PADMOUNT;
  connect_type SINGLE_PHASE_CENTER_TAPPED;
  primary_voltage 7200.0;
  secondary_voltage 120.0;
  resistance 0.01050;
  resistance1 0.02100;
  resistance2 0.02100;
  reactance 0.01224;
  reactance1 0.00612;
  reactance2 0.00612;
  shunt_resistance 111.11;
  shunt_reactance 29.59;
}
object transformer_configuration {
  name XF1_PADMOUNT_BS_75;
  power_rating 75.00;
  powerA_rating 0.0;
  powerB_rating 75.00;
  powerC_rating 0.0;
  install_type PADMOUNT;
  connect_type SINGLE_PHASE_CENTER_TAPPED;
  primary_voltage 7200.0;
  secondary_voltage 120.0;
  resistance 0.00625;
  resistance1 0.01250;
  resistance2 0.01250;
  reactance 0.01352;
  reactance1 0.00676;
  reactance2 0.00676;
  shunt_resistance 238.10;
  shunt_reactance 67.11;
}
object transformer_configuration {
  name XF1_PADMOUNT_CS_25;
  power_rating 25.00;
  powerA_rating 0.0;
  powerB_rating 0.0;
  powerC_rating 25.00;
  install_type PADMOUNT;
  connect_type SINGLE_PHASE_CENTER_TAPPED;
  primary_voltage 7200.0;
  secondary_voltage 120.0;
  resistance 0.00800;
  resistance1 0.01600;
  resistance2 0.01600;
  reactance 0.01208;
  reactance1 0.00604;
  reactance2 0.00604;
  shunt_resistance 192.31;
  shunt_reactance 51.81;
}
object transformer_configuration {
  name XF1_PADMOUNT_AS_167;
  power_rating 167.00;
  powerA_rating 167.00;
  powerB_rating 0.0;
  powerC_rating 0.0;
  install_type PADMOUNT;
  connect_type SINGLE_PHASE_CENTER_TAPPED;
  primary_voltage 7200.0;
  secondary_voltage 120.0;
  resistance 0.00575;
  resistance1 0.01150;
  resistance2 0.01150;
  reactance 0.02216;
  reactance1 0.01108;
  reactance2 0.01108;
  shunt_resistance 263.16;
  shunt_reactance 60.24;
}
object transformer_configuration {
  name XF1_PADMOUNT_AS_100;
  power_rating 100.00;
  powerA_rating 100.00;
  powerB_rating 0.0;
  powerC_rating 0.0;
  install_type PADMOUNT;
  connect_type SINGLE_PHASE_CENTER_TAPPED;
  primary_voltage 7200.0;
  secondary_voltage 120.0;
  resistance 0.00600;
  resistance1 0.01200;
  resistance2 0.01200;
  reactance 0.01752;
  reactance1 0.00876;
  reactance2 0.00876;
  shunt_resistance 250.00;
  shunt_reactance 68.97;
}
object transformer_configuration {
  name XF1_PADMOUNT_AS_5;
  power_rating 5.00;
  powerA_rating 5.00;
  powerB_rating 0.0;
  powerC_rating 0.0;
  install_type PADMOUNT;
  connect_type SINGLE_PHASE_CENTER_TAPPED;
  primary_voltage 7200.0;
  secondary_voltage 120.0;
  resistance 0.01050;
  resistance1 0.02100;
  resistance2 0.02100;
  reactance 0.01224;
  reactance1 0.00612;
  reactance2 0.00612;
  shunt_resistance 111.11;
  shunt_reactance 29.59;
}
object transformer_configuration {
  name XF1_PADMOUNT_CS_15;
  power_rating 15.00;
  powerA_rating 0.0;
  powerB_rating 0.0;
  powerC_rating 15.00;
  install_type PADMOUNT;
  connect_type SINGLE_PHASE_CENTER_TAPPED;
  primary_voltage 7200.0;
  secondary_voltage 120.0;
  resistance 0.00850;
  resistance1 0.01700;
  resistance2 0.01700;
  reactance 0.01176;
  reactance1 0.00588;
  reactance2 0.00588;
  shunt_resistance 166.67;
  shunt_reactance 39.53;
}
object transformer_configuration {
  name XF1_POLETOP_CS_250;
  power_rating 250.00;
  powerA_rating 0.0;
  powerB_rating 0.0;
  powerC_rating 250.00;
  install_type POLETOP;
  connect_type SINGLE_PHASE_CENTER_TAPPED;
  primary_voltage 7200.0;
  secondary_voltage 120.0;
  resistance 0.00550;
  resistance1 0.01100;
  resistance2 0.01100;
  reactance 0.03080;
  reactance1 0.01540;
  reactance2 0.01540;
  shunt_resistance 277.78;
  shunt_reactance 55.25;
}
object transformer_configuration {
  name XF3_POLETOP_ABCN_500;
  power_rating 500.00;
  powerA_rating 166.67;
  powerB_rating 166.67;
  powerC_rating 166.67;
  install_type POLETOP;
  connect_type WYE_WYE;
  primary_voltage 12470.0;
  secondary_voltage 480.0;
  resistance 0.01100;
  reactance 0.04880;
  shunt_resistance 222.22;
  shunt_reactance 44.25;
}
object transformer_configuration {
  name XF3_POLETOP_ABCN_300;
  power_rating 300.00;
  powerA_rating 100.00;
  powerB_rating 100.00;
  powerC_rating 100.00;
  install_type POLETOP;
  connect_type WYE_WYE;
  primary_voltage 12470.0;
  secondary_voltage 480.0;
  resistance 0.01300;
  reactance 0.04830;
  shunt_resistance 217.39;
  shunt_reactance 44.44;
}
object transformer_configuration {
  name XF3_POLETOP_ABCN_75;
  power_rating 75.00;
  powerA_rating 25.00;
  powerB_rating 25.00;
  powerC_rating 25.00;
  install_type POLETOP;
  connect_type WYE_WYE;
  primary_voltage 12470.0;
  secondary_voltage 208.0;
  resistance 0.01600;
  reactance 0.02420;
  shunt_resistance 158.73;
  shunt_reactance 30.86;
}
object transformer_configuration {
  name XF3_POLETOP_ABCN_150;
  power_rating 150.00;
  powerA_rating 50.00;
  powerB_rating 50.00;
  powerC_rating 50.00;
  install_type POLETOP;
  connect_type WYE_WYE;
  primary_voltage 12470.0;
  secondary_voltage 480.0;
  resistance 0.01300;
  reactance 0.03250;
  shunt_resistance 185.19;
  shunt_reactance 36.36;
}
object transformer_configuration {
  name XF1_POLETOP_CN_50;
  power_rating 50.00;
  powerA_rating 0.0;
  powerB_rating 0.0;
  powerC_rating 50.00;
  install_type POLETOP;
  connect_type WYE_WYE;
  primary_voltage 12470.0;
  secondary_voltage 208.0;
  resistance 0.01600;
  reactance 0.02420;
  shunt_resistance 158.73;
  shunt_reactance 30.86;
}
object transformer_configuration {
  name XF3_PADMOUNT_ABCN_112p5;
  power_rating 112.50;
  powerA_rating 37.50;
  powerB_rating 37.50;
  powerC_rating 37.50;
  install_type PADMOUNT;
  connect_type WYE_WYE;
  primary_voltage 12470.0;
  secondary_voltage 480.0;
  resistance 0.01450;
  reactance 0.02850;
  shunt_resistance 169.49;
  shunt_reactance 33.44;
}
object transformer_configuration {
  name XF3_PADMOUNT_ABCN_500;
  power_rating 500.00;
  powerA_rating 166.67;
  powerB_rating 166.67;
  powerC_rating 166.67;
  install_type PADMOUNT;
  connect_type WYE_WYE;
  primary_voltage 12470.0;
  secondary_voltage 480.0;
  resistance 0.01100;
  reactance 0.04880;
  shunt_resistance 222.22;
  shunt_reactance 44.25;
}
object regulator_configuration {
  name feeder_reg_cfg;
  Control OUTPUT_VOLTAGE;
  band_center 7500.0;
  band_width 120;
  connect_type WYE_WYE;
  time_delay 30;
  raise_taps 16;
  lower_taps 16;
  regulation 0.10;
  tap_pos_A 0;
  tap_pos_B 0;
  tap_pos_C 0;
}
object regulator_configuration {
  name voltage_reg_cfg;
  Control OUTPUT_VOLTAGE;
  band_center 7500.0;
  band_width 120;
  connect_type WYE_WYE;
  time_delay 30;
  raise_taps 16;
  lower_taps 16;
  regulation 0.10;
  tap_pos_A 0;
  tap_pos_B 0;
  tap_pos_C 0;
}
object overhead_line_conductor {
  name ID_555;
  rating.summer.continuous 180.0;
  geometric_mean_radius 0.00418 ft;
  resistance 1.62570;
}
object overhead_line_conductor {
  name ID_556;
  rating.summer.continuous 533.0;
  geometric_mean_radius 0.02280 ft;
  resistance 0.25800;
}
object overhead_line_conductor {
  name ID_557;
  rating.summer.continuous 149.0;
  geometric_mean_radius 0.00663 ft;
  resistance 1.50000;
}
object overhead_line_conductor {
  name ID_558;
  rating.summer.continuous 270.0;
  geometric_mean_radius 0.01350 ft;
  resistance 0.13200;
}
object overhead_line_conductor {
  name ID_559;
  rating.summer.continuous 663.0;
  geometric_mean_radius 0.02710 ft;
  resistance 0.03690;
}
object overhead_line_conductor {
  name ID_560;
  rating.summer.continuous 530.0;
  geometric_mean_radius 0.02300 ft;
  resistance 0.30300;
}
object overhead_line_conductor {
  name ID_561;
  rating.summer.continuous 300.0;
  geometric_mean_radius 0.00600 ft;
  resistance 0.63800;
}
object overhead_line_conductor {
  name ID_562;
  rating.summer.continuous 197.0;
  geometric_mean_radius 0.00883 ft;
  resistance 1.51970;
}
object overhead_line_conductor {
  name ID_563;
  rating.summer.continuous 388.0;
  geometric_mean_radius 0.02020 ft;
  resistance 0.06570;
}
object overhead_line_conductor {
  name ID_564;
  rating.summer.continuous 256.0;
  geometric_mean_radius 0.01200 ft;
  resistance 0.16600;
}
object overhead_line_conductor {
  name ID_565;
  rating.summer.continuous 360.0;
  geometric_mean_radius 0.01033 ft;
  resistance 0.47600;
}
object overhead_line_conductor {
  name ID_566;
  rating.summer.continuous 204.0;
  geometric_mean_radius 0.00836 ft;
  resistance 0.94500;
}
object line_spacing {
  name ID_101;
  distance_AN 0.0 in;
}
object line_spacing {
  name ID_102;
  distance_AB 0.0 in;
  distance_BC 0.0 in;
  distance_AC 0.0 in;
  distance_AN 0.0 in;
  distance_BN 0.0 in;
  distance_CN 0.0 in;
}
object line_spacing {
  name ID_103;
  distance_CN 0.0 in;
}
object line_spacing {
  name ID_104;
  distance_BN 0.0 in;
}
object line_spacing {
  name ID_105;
  distance_BC 0.0 in;
  distance_BN 0.0 in;
  distance_CN 0.0 in;
}
object line_spacing {
  name ID_106;
  distance_AB 0.0 in;
  distance_AN 0.0 in;
  distance_BN 0.0 in;
}
object line_spacing {
  name ID_107;
  distance_AC 0.0 in;
  distance_AN 0.0 in;
  distance_CN 0.0 in;
}
object line_configuration {
  name ID_60;
  conductor_A ID_555;
  conductor_N ID_555;
  spacing ID_101;
}
object line_configuration {
  name ID_61;
  conductor_A ID_556;
  conductor_B ID_556;
  conductor_C ID_556;
  conductor_N ID_556;
  spacing ID_102;
}
object line_configuration {
  name ID_62;
  conductor_A ID_557;
  conductor_N ID_557;
  spacing ID_101;
}
object line_configuration {
  name ID_63;
  conductor_A ID_558;
  conductor_N ID_558;
  spacing ID_101;
}
object line_configuration {
  name ID_64;
  conductor_C ID_555;
  conductor_N ID_555;
  spacing ID_103;
}
object line_configuration {
  name ID_65;
  conductor_C ID_555;
  conductor_N ID_555;
  spacing ID_103;
}
object line_configuration {
  name ID_66;
  conductor_A ID_559;
  conductor_B ID_559;
  conductor_C ID_559;
  conductor_N ID_559;
  spacing ID_102;
}
object line_configuration {
  name ID_67;
  conductor_B ID_1619;
  conductor_N ID_1619;
  spacing ID_104;
}
object line_configuration {
  name ID_68;
  conductor_A ID_560;
  conductor_B ID_560;
  conductor_C ID_560;
  conductor_N ID_560;
  spacing ID_102;
}
object line_configuration {
  name ID_69;
  conductor_A ID_1620;
  conductor_B ID_1620;
  conductor_C ID_1620;
  conductor_N ID_1620;
  spacing ID_102;
}
object line_configuration {
  name ID_70;
  conductor_C ID_1619;
  conductor_N ID_1619;
  spacing ID_103;
}
object line_configuration {
  name ID_71;
  conductor_B ID_555;
  conductor_N ID_555;
  spacing ID_104;
}
object line_configuration {
  name ID_72;
  conductor_C ID_557;
  conductor_N ID_557;
  spacing ID_103;
}
object line_configuration {
  name ID_73;
  conductor_B ID_555;
  conductor_C ID_555;
  conductor_N ID_555;
  spacing ID_105;
}
object line_configuration {
  name ID_74;
  conductor_A ID_1619;
  conductor_B ID_1619;
  conductor_C ID_1619;
  conductor_N ID_1619;
  spacing ID_102;
}
object line_configuration {
  name ID_75;
  conductor_A ID_555;
  conductor_B ID_555;
  conductor_C ID_555;
  conductor_N ID_555;
  spacing ID_102;
}
object line_configuration {
  name ID_76;
  conductor_A ID_561;
  conductor_B ID_561;
  conductor_C ID_561;
  conductor_N ID_561;
  spacing ID_102;
}
object line_configuration {
  name ID_77;
  conductor_A ID_562;
  conductor_N ID_562;
  spacing ID_101;
}
object line_configuration {
  name ID_78;
  conductor_A ID_562;
  conductor_N ID_562;
  spacing ID_101;
}
object line_configuration {
  name ID_79;
  conductor_B ID_555;
  conductor_N ID_555;
  spacing ID_104;
}
object line_configuration {
  name ID_80;
  conductor_A ID_555;
  conductor_B ID_555;
  conductor_N ID_555;
  spacing ID_106;
}
object line_configuration {
  name ID_81;
  conductor_A ID_563;
  conductor_B ID_563;
  conductor_C ID_563;
  conductor_N ID_563;
  spacing ID_102;
}
object line_configuration {
  name ID_82;
  conductor_A ID_563;
  conductor_B ID_563;
  conductor_C ID_563;
  conductor_N ID_563;
  spacing ID_102;
}
object line_configuration {
  name ID_83;
  conductor_A ID_562;
  conductor_C ID_562;
  conductor_N ID_562;
  spacing ID_107;
}
object line_configuration {
  name ID_84;
  conductor_C ID_557;
  conductor_N ID_557;
  spacing ID_103;
}
object line_configuration {
  name ID_85;
  conductor_C ID_557;
  conductor_N ID_557;
  spacing ID_103;
}
object line_configuration {
  name ID_86;
  conductor_B ID_558;
  conductor_N ID_558;
  spacing ID_104;
}
object line_configuration {
  name ID_87;
  conductor_B ID_561;
  conductor_N ID_561;
  spacing ID_104;
}
object line_configuration {
  name ID_88;
  conductor_A ID_555;
  conductor_B ID_555;
  conductor_C ID_555;
  conductor_N ID_555;
  spacing ID_102;
}
object line_configuration {
  name ID_89;
  conductor_A ID_559;
  conductor_B ID_559;
  conductor_C ID_559;
  conductor_N ID_559;
  spacing ID_102;
}
object line_configuration {
  name ID_90;
  conductor_A ID_562;
  conductor_N ID_562;
  spacing ID_101;
}
object line_configuration {
  name ID_91;
  conductor_A ID_562;
  conductor_N ID_562;
  spacing ID_101;
}
object line_configuration {
  name ID_92;
  conductor_B ID_562;
  conductor_N ID_562;
  spacing ID_104;
}
object line_configuration {
  name ID_93;
  conductor_A ID_555;
  conductor_C ID_555;
  conductor_N ID_555;
  spacing ID_107;
}
object line_configuration {
  name ID_94;
  conductor_A ID_558;
  conductor_B ID_558;
  conductor_C ID_558;
  conductor_N ID_558;
  spacing ID_102;
}
object line_configuration {
  name ID_95;
  conductor_B ID_555;
  conductor_N ID_555;
  spacing ID_104;
}
object line_configuration {
  name ID_96;
  conductor_C ID_1621;
  conductor_N ID_1621;
  spacing ID_103;
}
object line_configuration {
  name ID_97;
  conductor_B ID_557;
  conductor_N ID_557;
  spacing ID_104;
}
object line_configuration {
  name ID_98;
  conductor_A ID_555;
  conductor_N ID_555;
  spacing ID_101;
}
object line_configuration {
  name ID_99;
  conductor_C ID_558;
  conductor_N ID_558;
  spacing ID_103;
}
object line_configuration {
  name ID_100;
  conductor_A ID_557;
  conductor_N ID_557;
  spacing ID_101;
}
object triplex_line_conductor {
  name triplex_4/0_aa;
  resistance 0.48;
  geometric_mean_radius 0.0158;
  rating.summer.continuous 1000.0;
  rating.summer.emergency 1000.0;
  rating.winter.continuous 1000.0;
  rating.winter.emergency 1000.0;
}
object triplex_line_configuration {
  name ID_838;
  conductor_1 triplex_4/0_aa;
  conductor_2 triplex_4/0_aa;
  conductor_N triplex_4/0_aa;
  insulation_thickness 0.08;
  diameter 0.522;
}
object underground_line_conductor {
  name ID_1619;
  rating.summer.continuous 112.0;
  outer_diameter 1.09;
  conductor_gmr 0.0088 ft;
  conductor_diameter 0.292;
  conductor_resistance 1.38336;
  neutral_gmr 0.00208 ft;
  neutral_resistance 14.87;
  neutral_diameter 0.0641;
  neutral_strands 6.0;
  insulation_relative_permitivitty 2.3;
}
object underground_line_conductor {
  name ID_1620;
  rating.summer.continuous 662.0;
  outer_diameter 2.291;
  conductor_gmr 0.03592 ft;
  conductor_diameter 1.117;
  conductor_resistance 0.057024;
  neutral_gmr 0.00330 ft;
  neutral_resistance 5.9026;
  neutral_diameter 0.1019;
  neutral_strands 20.0;
  insulation_relative_permitivitty 2.3;
}
object underground_line_conductor {
  name ID_1621;
  rating.summer.continuous 142.0;
  outer_diameter 1.27;
  conductor_gmr 0.01142 ft;
  conductor_diameter 0.362;
  conductor_resistance 0.88704;
  neutral_gmr 0.00208 ft;
  neutral_resistance 14.87;
  neutral_diameter 0.0641;
  neutral_strands 16.0;
  insulation_relative_permitivitty 2.3;
}
object fuse {
  name R2_12_47_2_fuse_1;
// downstream 231.75 kva on AS
  phases AN;
  from R2_12_47_2_node_1;
  to R2_12_47_2_node_246;
  current_limit 100;
  status CLOSED;
  mean_replacement_time 3600;
}
object fuse {
  name R2_12_47_2_fuse_2;
// downstream 34.07 kva on BS
  phases BN;
  from R2_12_47_2_node_8;
  to R2_12_47_2_node_100;
  current_limit 40;
  status CLOSED;
  mean_replacement_time 3600;
}
object fuse {
  name R2_12_47_2_fuse_3;
// downstream 229.52 kva on CS
  phases CN;
  from R2_12_47_2_node_11;
  to R2_12_47_2_node_98;
  current_limit 100;
  status CLOSED;
  mean_replacement_time 3600;
}
object fuse {
  name R2_12_47_2_fuse_4;
// downstream 163.94 kva on CS
  phases CN;
  from R2_12_47_2_node_12;
  to R2_12_47_2_node_99;
  current_limit 65;
  status CLOSED;
  mean_replacement_time 3600;
}
object fuse {
  name R2_12_47_2_fuse_5;
// downstream 17.04 kva on BS
  phases BN;
  from R2_12_47_2_node_13;
  to R2_12_47_2_node_101;
  current_limit 40;
  status CLOSED;
  mean_replacement_time 3600;
}
object fuse {
  name R2_12_47_2_fuse_6;
// downstream 1157.31 kva on BCS
  phases BCN;
  from R2_12_47_2_node_15;
  to R2_12_47_2_node_248;
  current_limit 280;
  status CLOSED;
  mean_replacement_time 3600;
}
object fuse {
  name R2_12_47_2_fuse_7;
// downstream 19.31 kva on AS
  phases AN;
  from R2_12_47_2_node_16;
  to R2_12_47_2_node_113;
  current_limit 40;
  status CLOSED;
  mean_replacement_time 3600;
}
object fuse {
  name R2_12_47_2_fuse_8;
// downstream 351.63 kva on ABC
  phases ABCN;
  from R2_12_47_2_node_17;
  to R2_12_47_2_node_9;
  current_limit 65;
  status CLOSED;
  mean_replacement_time 3600;
}
object fuse {
  name R2_12_47_2_fuse_9;
// downstream 69.62 kva on ABCS
  phases ABCN;
  from R2_12_47_2_node_19;
  to R2_12_47_2_node_18;
  current_limit 40;
  status CLOSED;
  mean_replacement_time 3600;
}
object fuse {
  name R2_12_47_2_fuse_10;
// downstream 38.63 kva on AS
  phases AN;
  from R2_12_47_2_node_23;
  to R2_12_47_2_node_109;
  current_limit 40;
  status CLOSED;
  mean_replacement_time 3600;
}
object fuse {
  name R2_12_47_2_fuse_11;
// downstream 337.97 kva on AS
  phases AN;
  from R2_12_47_2_node_24;
  to R2_12_47_2_node_21;
  current_limit 200;
  status CLOSED;
  mean_replacement_time 3600;
}
object fuse {
  name R2_12_47_2_fuse_12;
// downstream 32.79 kva on CS
  phases CN;
  from R2_12_47_2_node_28;
  to R2_12_47_2_node_29;
  current_limit 40;
  status CLOSED;
  mean_replacement_time 3600;
}
object fuse {
  name R2_12_47_2_fuse_13;
// downstream 57.94 kva on AS
  phases AN;
  from R2_12_47_2_node_32;
  to R2_12_47_2_node_154;
  current_limit 40;
  status CLOSED;
  mean_replacement_time 3600;
}
object fuse {
  name R2_12_47_2_fuse_14;
// downstream 389.64 kva on ABS
  phases ABN;
  from R2_12_47_2_node_33;
  to R2_12_47_2_node_30;
  current_limit 100;
  status CLOSED;
  mean_replacement_time 3600;
}
object fuse {
  name R2_12_47_2_fuse_15;
// downstream 210.98 kva on ABC
  phases ABCN;
  from R2_12_47_2_node_36;
  to R2_12_47_2_node_102;
  current_limit 40;
  status CLOSED;
  mean_replacement_time 3600;
}
object fuse {
  name R2_12_47_2_fuse_16;
// downstream 50.21 kva on AS
  phases AN;
  from R2_12_47_2_node_37;
  to R2_12_47_2_node_132;
  current_limit 40;
  status CLOSED;
  mean_replacement_time 3600;
}
object fuse {
  name R2_12_47_2_fuse_17;
// downstream 158.36 kva on AS
  phases AN;
  from R2_12_47_2_node_39;
  to R2_12_47_2_node_131;
  current_limit 65;
  status CLOSED;
  mean_replacement_time 3600;
}
object fuse {
  name R2_12_47_2_fuse_18;
// downstream 16.39 kva on CS
  phases CN;
  from R2_12_47_2_node_40;
  to R2_12_47_2_node_229;
  current_limit 40;
  status CLOSED;
  mean_replacement_time 3600;
}
object fuse {
  name R2_12_47_2_fuse_19;
// downstream 21.91 kva on ACS
  phases ACN;
  from R2_12_47_2_node_42;
  to R2_12_47_2_node_67;
  current_limit 40;
  status CLOSED;
  mean_replacement_time 3600;
}
object fuse {
  name R2_12_47_2_fuse_20;
// downstream 352.33 kva on ABCS
  phases ABCN;
  from R2_12_47_2_node_42;
  to R2_12_47_2_node_103;
  current_limit 65;
  status CLOSED;
  mean_replacement_time 3600;
}
object fuse {
  name R2_12_47_2_fuse_21;
// downstream 32.79 kva on CS
  phases CN;
  from R2_12_47_2_node_44;
  to R2_12_47_2_node_50;
  current_limit 40;
  status CLOSED;
  mean_replacement_time 3600;
}
object fuse {
  name R2_12_47_2_fuse_22;
// downstream 49.18 kva on CS
  phases CN;
  from R2_12_47_2_node_46;
  to R2_12_47_2_node_49;
  current_limit 40;
  status CLOSED;
  mean_replacement_time 3600;
}
object fuse {
  name R2_12_47_2_fuse_23;
// downstream 86.89 kva on BS
  phases BN;
  from R2_12_47_2_node_47;
  to R2_12_47_2_node_207;
  current_limit 40;
  status CLOSED;
  mean_replacement_time 3600;
}
object fuse {
  name R2_12_47_2_fuse_24;
// downstream 76.67 kva on BS
  phases BN;
  from R2_12_47_2_node_48;
  to R2_12_47_2_node_211;
  current_limit 40;
  status CLOSED;
  mean_replacement_time 3600;
}
object fuse {
  name R2_12_47_2_fuse_25;
// downstream 68.15 kva on BS
  phases BN;
  from R2_12_47_2_node_54;
  to R2_12_47_2_node_231;
  current_limit 40;
  status CLOSED;
  mean_replacement_time 3600;
}
object fuse {
  name R2_12_47_2_fuse_26;
// downstream 68.15 kva on BS
  phases BN;
  from R2_12_47_2_node_55;
  to R2_12_47_2_node_228;
  current_limit 40;
  status CLOSED;
  mean_replacement_time 3600;
}
object fuse {
  name R2_12_47_2_fuse_27;
// downstream 136.29 kva on BS
  phases BN;
  from R2_12_47_2_node_56;
  to R2_12_47_2_node_55;
  current_limit 65;
  status CLOSED;
  mean_replacement_time 3600;
}
object fuse {
  name R2_12_47_2_fuse_28;
// downstream 803.35 kva on ABCS
  phases ABCN;
  from R2_12_47_2_node_57;
  to R2_12_47_2_node_63;
  current_limit 100;
  status CLOSED;
  mean_replacement_time 3600;
}
object fuse {
  name R2_12_47_2_fuse_29;
// downstream 34.07 kva on BS
  phases BN;
  from R2_12_47_2_node_62;
  to R2_12_47_2_node_226;
  current_limit 40;
  status CLOSED;
  mean_replacement_time 3600;
}
object fuse {
  name R2_12_47_2_fuse_30;
// downstream 65.58 kva on CS
  phases CN;
  from R2_12_47_2_node_64;
  to R2_12_47_2_node_225;
  current_limit 40;
  status CLOSED;
  mean_replacement_time 3600;
}
object fuse {
  name R2_12_47_2_fuse_31;
// downstream 322.64 kva on CS
  phases CN;
  from R2_12_47_2_node_65;
  to R2_12_47_2_node_66;
  current_limit 200;
  status CLOSED;
  mean_replacement_time 3600;
}
object fuse {
  name R2_12_47_2_fuse_32;
// downstream 77.25 kva on AS
  phases AN;
  from R2_12_47_2_node_68;
  to R2_12_47_2_node_205;
  current_limit 40;
  status CLOSED;
  mean_replacement_time 3600;
}
object fuse {
  name R2_12_47_2_fuse_33;
// downstream 428.77 kva on ABC
  phases ABCN;
  from R2_12_47_2_node_69;
  to R2_12_47_2_node_183;
  current_limit 65;
  status CLOSED;
  mean_replacement_time 3600;
}
object fuse {
  name R2_12_47_2_fuse_34;
// downstream 65.58 kva on CS
  phases CN;
  from R2_12_47_2_node_72;
  to R2_12_47_2_node_153;
  current_limit 40;
  status CLOSED;
  mean_replacement_time 3600;
}
object fuse {
  name R2_12_47_2_fuse_35;
// downstream 34.07 kva on BS
  phases BN;
  from R2_12_47_2_node_72;
  to R2_12_47_2_node_155;
  current_limit 40;
  status CLOSED;
  mean_replacement_time 3600;
}
object fuse {
  name R2_12_47_2_fuse_36;
// downstream 168.02 kva on AS
  phases AN;
  from R2_12_47_2_node_73;
  to R2_12_47_2_node_175;
  current_limit 65;
  status CLOSED;
  mean_replacement_time 3600;
}
object fuse {
  name R2_12_47_2_fuse_37;
// downstream 49.18 kva on CS
  phases CN;
  from R2_12_47_2_node_74;
  to R2_12_47_2_node_177;
  current_limit 40;
  status CLOSED;
  mean_replacement_time 3600;
}
object fuse {
  name R2_12_47_2_fuse_38;
// downstream 68.15 kva on BS
  phases BN;
  from R2_12_47_2_node_81;
  to R2_12_47_2_node_126;
  current_limit 40;
  status CLOSED;
  mean_replacement_time 3600;
}
object fuse {
  name R2_12_47_2_fuse_39;
// downstream 11.59 kva on AS
  phases AN;
  from R2_12_47_2_node_87;
  to R2_12_47_2_node_201;
  current_limit 40;
  status CLOSED;
  mean_replacement_time 3600;
}
object fuse {
  name R2_12_47_2_fuse_40;
// downstream 114.76 kva on CS
  phases CN;
  from R2_12_47_2_node_88;
  to R2_12_47_2_node_190;
  current_limit 40;
  status CLOSED;
  mean_replacement_time 3600;
}
object fuse {
  name R2_12_47_2_fuse_41;
// downstream 19.31 kva on AS
  phases AN;
  from R2_12_47_2_node_88;
  to R2_12_47_2_node_195;
  current_limit 40;
  status CLOSED;
  mean_replacement_time 3600;
}
object fuse {
  name R2_12_47_2_fuse_42;
// downstream 17.04 kva on BS
  phases BN;
  from R2_12_47_2_node_89;
  to R2_12_47_2_node_181;
  current_limit 40;
  status CLOSED;
  mean_replacement_time 3600;
}
object fuse {
  name R2_12_47_2_fuse_43;
// downstream 81.97 kva on CS
  phases CN;
  from R2_12_47_2_node_90;
  to R2_12_47_2_node_166;
  current_limit 40;
  status CLOSED;
  mean_replacement_time 3600;
}
object fuse {
  name R2_12_47_2_fuse_44;
// downstream 88.53 kva on CS
  phases CN;
  from R2_12_47_2_node_91;
  to R2_12_47_2_node_179;
  current_limit 40;
  status CLOSED;
  mean_replacement_time 3600;
}
object fuse {
  name R2_12_47_2_fuse_45;
// downstream 98.37 kva on CS
  phases CN;
  from R2_12_47_2_node_91;
  to R2_12_47_2_node_185;
  current_limit 40;
  status CLOSED;
  mean_replacement_time 3600;
}
object fuse {
  name R2_12_47_2_fuse_46;
// downstream 68.15 kva on BS
  phases BN;
  from R2_12_47_2_node_94;
  to R2_12_47_2_node_108;
  current_limit 40;
  status CLOSED;
  mean_replacement_time 3600;
}
object fuse {
  name R2_12_47_2_fuse_47;
// downstream 408.88 kva on BS
  phases BN;
  from R2_12_47_2_node_244;
  to R2_12_47_2_node_97;
  current_limit 200;
  status CLOSED;
  mean_replacement_time 3600;
}
object fuse {
  name R2_12_47_2_fuse_48;
// downstream 119.26 kva on BS
  phases BN;
  from R2_12_47_2_node_111;
  to R2_12_47_2_node_121;
  current_limit 65;
  status CLOSED;
  mean_replacement_time 3600;
}
object fuse {
  name R2_12_47_2_fuse_49;
// downstream 102.22 kva on BS
  phases BN;
  from R2_12_47_2_node_112;
  to R2_12_47_2_node_35;
  current_limit 40;
  status CLOSED;
  mean_replacement_time 3600;
}
object fuse {
  name R2_12_47_2_fuse_50;
// downstream 313.20 kva on ABCS
  phases ABCN;
  from R2_12_47_2_node_112;
  to R2_12_47_2_node_36;
  current_limit 40;
  status CLOSED;
  mean_replacement_time 3600;
}
object fuse {
  name R2_12_47_2_fuse_51;
// downstream 77.25 kva on AS
  phases AN;
  from R2_12_47_2_node_146;
  to R2_12_47_2_node_174;
  current_limit 40;
  status CLOSED;
  mean_replacement_time 3600;
}
object switch {
  name R2_12_47_2_switch_1;
// downstream 7539.16 kva on ABCS
  phases ABCN;
  from R2_12_47_2_node_250;
  to R2_12_47_2_node_243;
  status CLOSED;
}
object switch {
  name R2_12_47_2_switch_2;
  phases ABCN;
  from R2_12_47_2_node_24;
  to R2_12_47_2_node_25;
  status CLOSED;
}
object switch {
  name R2_12_47_2_switch_3;
// downstream 4575.07 kva on ABCS
  phases ABCN;
  from R2_12_47_2_node_28;
  to R2_12_47_2_node_110;
  status CLOSED;
}
object switch {
  name R2_12_47_2_switch_4;
// downstream 2980.58 kva on ABCS
  phases ABCN;
  from R2_12_47_2_node_37;
  to R2_12_47_2_node_34;
  status CLOSED;
}
object switch {
  name R2_12_47_2_switch_5;
// downstream 1373.00 kva on ABCS
  phases ABCN;
  from R2_12_47_2_node_38;
  to R2_12_47_2_node_2;
  status CLOSED;
}
object switch {
  name R2_12_47_2_switch_6;
  phases ABCN;
  from R2_12_47_2_node_40;
  to R2_12_47_2_node_41;
  status CLOSED;
}
object switch {
  name R2_12_47_2_switch_7;
// downstream 446.22 kva on ABCS
  phases ABCN;
  from R2_12_47_2_node_43;
  to R2_12_47_2_node_218;
  status CLOSED;
}
object switch {
  name R2_12_47_2_switch_8;
// downstream 1577.84 kva on ABCS
  phases ABCN;
  from R2_12_47_2_node_45;
  to R2_12_47_2_node_44;
  status CLOSED;
}
object switch {
  name R2_12_47_2_switch_9;
  phases CN;
  from R2_12_47_2_node_95;
  to R2_12_47_2_node_104;
  status CLOSED;
}
object switch {
  name R2_12_47_2_switch_10;
// downstream 204.44 kva on BS
  phases BN;
  from R2_12_47_2_node_97;
  to R2_12_47_2_node_106;
  status CLOSED;
}
object switch {
  name R2_12_47_2_switch_11;
  phases ABCN;
  from R2_12_47_2_node_184;
  to R2_12_47_2_node_71;
  status CLOSED;
}
object switch {
  name R2_12_47_2_switch_12;
// downstream 1029.38 kva on ABCS
  phases ABCN;
  from R2_12_47_2_node_217;
  to R2_12_47_2_node_52;
  status CLOSED;
}
object overhead_line {
  name R2_12_47_2_ol_1;
// downstream 193.13 kva on AS
  phases AN;
  from R2_12_47_2_node_3;
  to R2_12_47_2_node_247;
  length 350.880;
  configuration ID_62;
}
object overhead_line {
  name R2_12_47_2_ol_2;
// downstream 38.63 kva on AS
  phases AN;
  from R2_12_47_2_node_4;
  to R2_12_47_2_node_236;
  length 81.510;
  configuration ID_63;
}
object overhead_line {
  name R2_12_47_2_ol_3;
// downstream 16.39 kva on CS
  phases CN;
  from R2_12_47_2_node_153;
  to R2_12_47_2_node_160;
  length 277.760;
  configuration ID_64;
}
object overhead_line {
  name R2_12_47_2_ol_4;
// downstream 436.09 kva on CS
  phases CN;
  from R2_12_47_2_node_124;
  to R2_12_47_2_node_128;
  length 235.430;
  configuration ID_65;
}
object overhead_line {
  name R2_12_47_2_ol_5;
// downstream 65.58 kva on CS
  phases CN;
  from R2_12_47_2_node_5;
  to R2_12_47_2_node_161;
  length 97.930;
  configuration ID_64;
}
object overhead_line {
  name R2_12_47_2_ol_6;
// downstream 4607.86 kva on ABCS
  phases ABCN;
  from R2_12_47_2_node_6;
  to R2_12_47_2_node_28;
  length 160.250;
  configuration ID_66;
}
object overhead_line {
  name R2_12_47_2_ol_7;
// downstream 821.24 kva on ABCS
  phases ABCN;
  from R2_12_47_2_node_7;
  to R2_12_47_2_node_73;
  length 292.430;
  configuration ID_66;
}
object overhead_line {
  name R2_12_47_2_ol_8;
// downstream 7524.13 kva on ABCS
  phases ABCN;
  from R2_12_47_2_node_10;
  to R2_12_47_2_node_244;
  length 1307.780;
  configuration ID_68;
}
object overhead_line {
  name R2_12_47_2_ol_9;
// downstream 34.07 kva on BS
  phases BN;
  from R2_12_47_2_node_13;
  to R2_12_47_2_node_143;
  length 485.610;
  configuration ID_71;
}
object overhead_line {
  name R2_12_47_2_ol_10;
// downstream 641.02 kva on CS
  phases CN;
  from R2_12_47_2_node_14;
  to R2_12_47_2_node_117;
  length 358.900;
  configuration ID_72;
}
object overhead_line {
  name R2_12_47_2_ol_11;
// downstream 5290.86 kva on ABCS
  phases ABCN;
  from R2_12_47_2_node_15;
  to R2_12_47_2_node_16;
  length 227.770;
  configuration ID_66;
}
object overhead_line {
  name R2_12_47_2_ol_12;
// downstream 6448.17 kva on ABCS
  phases ABCN;
  from R2_12_47_2_node_1;
  to R2_12_47_2_node_15;
  length 722.490;
  configuration ID_68;
}
object overhead_line {
  name R2_12_47_2_ol_13;
// downstream 69.62 kva on ABCS
  phases ABCN;
  from R2_12_47_2_node_18;
  to R2_12_47_2_node_221;
  length 130.490;
  configuration ID_75;
}
object overhead_line {
  name R2_12_47_2_ol_14;
// downstream 337.97 kva on AS
  phases ABCN;
  from R2_12_47_2_node_19;
  to R2_12_47_2_node_24;
  length 296.560;
  configuration ID_76;
}
object overhead_line {
  name R2_12_47_2_ol_15;
// downstream 38.63 kva on AS
  phases AN;
  from R2_12_47_2_node_20;
  to R2_12_47_2_node_230;
  length 328.320;
  configuration ID_77;
}
object overhead_line {
  name R2_12_47_2_ol_16;
// downstream 38.63 kva on AS
  phases AN;
  from R2_12_47_2_node_21;
  to R2_12_47_2_node_20;
  length 99.470;
  configuration ID_77;
}
object overhead_line {
  name R2_12_47_2_ol_17;
// downstream 183.47 kva on AS
  phases AN;
  from R2_12_47_2_node_21;
  to R2_12_47_2_node_61;
  length 262.750;
  configuration ID_78;
}
object overhead_line {
  name R2_12_47_2_ol_18;
// downstream 34.07 kva on BS
  phases BN;
  from R2_12_47_2_node_22;
  to R2_12_47_2_node_216;
  length 388.380;
  configuration ID_71;
}
object overhead_line {
  name R2_12_47_2_ol_19;
// downstream 17.04 kva on BS
  phases BN;
  from R2_12_47_2_node_22;
  to R2_12_47_2_node_214;
  length 150.190;
  configuration ID_71;
}
object overhead_line {
  name R2_12_47_2_ol_20;
  phases ABCN;
  from R2_12_47_2_node_25;
  to R2_12_47_2_node_223;
  length 105.440;
  configuration ID_76;
}
object overhead_line {
  name R2_12_47_2_ol_21;
// downstream 32.79 kva on CS
  phases CN;
  from R2_12_47_2_node_29;
  to R2_12_47_2_node_123;
  length 74.200;
  configuration ID_64;
}
object overhead_line {
  name R2_12_47_2_ol_22;
// downstream 38.63 kva on AS
  phases AN;
  from R2_12_47_2_node_186;
  to R2_12_47_2_node_198;
  length 459.040;
  configuration ID_60;
}
object overhead_line {
  name R2_12_47_2_ol_23;
// downstream 34.07 kva on BS
  phases BN;
  from R2_12_47_2_node_31;
  to R2_12_47_2_node_84;
  length 437.800;
  configuration ID_79;
}
object overhead_line {
  name R2_12_47_2_ol_24;
// downstream 2980.58 kva on ABCS
  phases ABCN;
  from R2_12_47_2_node_34;
  to R2_12_47_2_node_112;
  length 474.360;
  configuration ID_81;
}
object overhead_line {
  name R2_12_47_2_ol_25;
// downstream 102.22 kva on BS
  phases BN;
  from R2_12_47_2_node_36;
  to R2_12_47_2_node_149;
  length 152.530;
  configuration ID_79;
}
object overhead_line {
  name R2_12_47_2_ol_26;
// downstream 3030.79 kva on ABCS
  phases ABCN;
  from R2_12_47_2_node_38;
  to R2_12_47_2_node_37;
  length 188.750;
  configuration ID_82;
}
object overhead_line {
  name R2_12_47_2_ol_27;
// downstream 158.36 kva on AS
  phases ABCN;
  from R2_12_47_2_node_38;
  to R2_12_47_2_node_39;
  length 93.340;
  configuration ID_66;
}
object overhead_line {
  name R2_12_47_2_ol_28;
// downstream 1545.05 kva on ABCS
  phases ABCN;
  from R2_12_47_2_node_44;
  to R2_12_47_2_node_43;
  length 239.770;
  configuration ID_81;
}
object overhead_line {
  name R2_12_47_2_ol_29;
// downstream 1577.84 kva on ABCS
  phases ABCN;
  from R2_12_47_2_node_46;
  to R2_12_47_2_node_45;
  length 103.540;
  configuration ID_81;
}
object overhead_line {
  name R2_12_47_2_ol_30;
// downstream 32.79 kva on CS
  phases CN;
  from R2_12_47_2_node_46;
  to R2_12_47_2_node_212;
  length 47.680;
  configuration ID_64;
}
object overhead_line {
  name R2_12_47_2_ol_31;
// downstream 32.79 kva on CS
  phases CN;
  from R2_12_47_2_node_49;
  to R2_12_47_2_node_213;
  length 201.550;
  configuration ID_84;
}
object overhead_line {
  name R2_12_47_2_ol_32;
// downstream 32.79 kva on CS
  phases CN;
  from R2_12_47_2_node_50;
  to R2_12_47_2_node_215;
  length 161.550;
  configuration ID_85;
}
object overhead_line {
  name R2_12_47_2_ol_33;
// downstream 38.63 kva on AS
  phases AN;
  from R2_12_47_2_node_51;
  to R2_12_47_2_node_4;
  length 31.210;
  configuration ID_63;
}
object overhead_line {
  name R2_12_47_2_ol_34;
// downstream 38.63 kva on AS
  phases AN;
  from R2_12_47_2_node_51;
  to R2_12_47_2_node_237;
  length 115.170;
  configuration ID_77;
}
object overhead_line {
  name R2_12_47_2_ol_35;
// downstream 1029.38 kva on ABCS
  phases ABCN;
  from R2_12_47_2_node_52;
  to R2_12_47_2_node_219;
  length 150.700;
  configuration ID_66;
}
object overhead_line {
  name R2_12_47_2_ol_36;
// downstream 306.25 kva on CS
  phases CN;
  from R2_12_47_2_node_53;
  to R2_12_47_2_node_239;
  length 448.880;
  configuration ID_64;
}
object overhead_line {
  name R2_12_47_2_ol_37;
// downstream 68.15 kva on BS
  phases BN;
  from R2_12_47_2_node_55;
  to R2_12_47_2_node_54;
  length 317.940;
  configuration ID_87;
}
object overhead_line {
  name R2_12_47_2_ol_38;
// downstream 50.47 kva on BCS
  phases ABCN;
  from R2_12_47_2_node_56;
  to R2_12_47_2_node_62;
  length 156.080;
  configuration ID_66;
}
object overhead_line {
  name R2_12_47_2_ol_39;
// downstream 186.76 kva on BCS
  phases ABCN;
  from R2_12_47_2_node_57;
  to R2_12_47_2_node_56;
  length 129.130;
  configuration ID_66;
}
object overhead_line {
  name R2_12_47_2_ol_40;
// downstream 77.25 kva on AS
  phases AN;
  from R2_12_47_2_node_58;
  to R2_12_47_2_node_51;
  length 210.950;
  configuration ID_77;
}
object overhead_line {
  name R2_12_47_2_ol_41;
// downstream 990.11 kva on ABCS
  phases ABCN;
  from R2_12_47_2_node_59;
  to R2_12_47_2_node_57;
  length 133.160;
  configuration ID_89;
}
object overhead_line {
  name R2_12_47_2_ol_42;
// downstream 77.25 kva on AS
  phases AN;
  from R2_12_47_2_node_60;
  to R2_12_47_2_node_58;
  length 121.960;
  configuration ID_90;
}
object overhead_line {
  name R2_12_47_2_ol_43;
// downstream 38.63 kva on AS
  phases AN;
  from R2_12_47_2_node_60;
  to R2_12_47_2_node_232;
  length 147.630;
  configuration ID_77;
}
object overhead_line {
  name R2_12_47_2_ol_44;
// downstream 38.63 kva on AS
  phases AN;
  from R2_12_47_2_node_60;
  to R2_12_47_2_node_233;
  length 239.840;
  configuration ID_77;
}
object overhead_line {
  name R2_12_47_2_ol_45;
// downstream 183.47 kva on AS
  phases AN;
  from R2_12_47_2_node_61;
  to R2_12_47_2_node_60;
  length 94.550;
  configuration ID_91;
}
object overhead_line {
  name R2_12_47_2_ol_46;
// downstream 16.39 kva on CS
  phases ABCN;
  from R2_12_47_2_node_62;
  to R2_12_47_2_node_40;
  length 320.190;
  configuration ID_66;
}
object overhead_line {
  name R2_12_47_2_ol_47;
// downstream 784.04 kva on ABCS
  phases ABCN;
  from R2_12_47_2_node_63;
  to R2_12_47_2_node_64;
  length 153.120;
  configuration ID_88;
}
object overhead_line {
  name R2_12_47_2_ol_48;
// downstream 19.31 kva on AS
  phases AN;
  from R2_12_47_2_node_63;
  to R2_12_47_2_node_224;
  length 178.580;
  configuration ID_77;
}
object overhead_line {
  name R2_12_47_2_ol_49;
// downstream 718.46 kva on ABCS
  phases ABCN;
  from R2_12_47_2_node_64;
  to R2_12_47_2_node_65;
  length 412.750;
  configuration ID_88;
}
object overhead_line {
  name R2_12_47_2_ol_50;
// downstream 374.24 kva on ABCS
  phases ABCN;
  from R2_12_47_2_node_65;
  to R2_12_47_2_node_42;
  length 360.840;
  configuration ID_88;
}
object overhead_line {
  name R2_12_47_2_ol_51;
// downstream 21.91 kva on ACS
  phases ACN;
  from R2_12_47_2_node_67;
  to R2_12_47_2_node_240;
  length 319.340;
  configuration ID_93;
}
object overhead_line {
  name R2_12_47_2_ol_52;
// downstream 1788.57 kva on ABCS
  phases ABCN;
  from R2_12_47_2_node_68;
  to R2_12_47_2_node_47;
  length 411.490;
  configuration ID_81;
}
object overhead_line {
  name R2_12_47_2_ol_53;
// downstream 175.27 kva on ABC
  phases ABCN;
  from R2_12_47_2_node_69;
  to R2_12_47_2_node_184;
  length 143.140;
  configuration ID_66;
}
object overhead_line {
  name R2_12_47_2_ol_54;
// downstream 105.49 kva on ABC
  phases ABCN;
  from R2_12_47_2_node_70;
  to R2_12_47_2_node_196;
  length 192.200;
  configuration ID_94;
}
object overhead_line {
  name R2_12_47_2_ol_55;
// downstream 845.74 kva on ABCS
  phases ABCN;
  from R2_12_47_2_node_72;
  to R2_12_47_2_node_152;
  length 94.990;
  configuration ID_66;
}
object overhead_line {
  name R2_12_47_2_ol_56;
// downstream 653.22 kva on ABCS
  phases ABCN;
  from R2_12_47_2_node_73;
  to R2_12_47_2_node_74;
  length 325.930;
  configuration ID_66;
}
object overhead_line {
  name R2_12_47_2_ol_57;
// downstream 604.03 kva on ABC
  phases ABCN;
  from R2_12_47_2_node_74;
  to R2_12_47_2_node_69;
  length 396.370;
  configuration ID_66;
}
object overhead_line {
  name R2_12_47_2_ol_58;
  phases ABCN;
  from R2_12_47_2_node_74;
  to R2_12_47_2_node_249;
  length 12.140;
  configuration ID_66;
}
object overhead_line {
  name R2_12_47_2_ol_59;
// downstream 32.79 kva on CS
  phases CN;
  from R2_12_47_2_node_76;
  to R2_12_47_2_node_170;
  length 72.880;
  configuration ID_64;
}
object overhead_line {
  name R2_12_47_2_ol_60;
// downstream 81.97 kva on CS
  phases CN;
  from R2_12_47_2_node_77;
  to R2_12_47_2_node_78;
  length 42.660;
  configuration ID_85;
}
object overhead_line {
  name R2_12_47_2_ol_61;
// downstream 357.77 kva on BS
  phases BN;
  from R2_12_47_2_node_80;
  to R2_12_47_2_node_118;
  length 95.610;
  configuration ID_79;
}
object overhead_line {
  name R2_12_47_2_ol_62;
// downstream 34.07 kva on BS
  phases BN;
  from R2_12_47_2_node_81;
  to R2_12_47_2_node_82;
  length 197.600;
  configuration ID_71;
}
object overhead_line {
  name R2_12_47_2_ol_63;
// downstream 34.07 kva on BS
  phases BN;
  from R2_12_47_2_node_82;
  to R2_12_47_2_node_129;
  length 438.400;
  configuration ID_79;
}
object overhead_line {
  name R2_12_47_2_ol_64;
// downstream 34.07 kva on BS
  phases BN;
  from R2_12_47_2_node_84;
  to R2_12_47_2_node_173;
  length 189.010;
  configuration ID_71;
}
object overhead_line {
  name R2_12_47_2_ol_65;
// downstream 68.15 kva on BS
  phases BN;
  from R2_12_47_2_node_85;
  to R2_12_47_2_node_130;
  length 36.310;
  configuration ID_95;
}
object overhead_line {
  name R2_12_47_2_ol_66;
// downstream 68.15 kva on BS
  phases BN;
  from R2_12_47_2_node_86;
  to R2_12_47_2_node_85;
  length 436.260;
  configuration ID_79;
}
object overhead_line {
  name R2_12_47_2_ol_67;
// downstream 1878.73 kva on ABCS
  phases ABCN;
  from R2_12_47_2_node_87;
  to R2_12_47_2_node_68;
  length 110.290;
  configuration ID_81;
}
object overhead_line {
  name R2_12_47_2_ol_68;
// downstream 16.39 kva on CS
  phases CN;
  from R2_12_47_2_node_93;
  to R2_12_47_2_node_203;
  length 169.820;
  configuration ID_64;
}
object overhead_line {
  name R2_12_47_2_ol_69;
// downstream 38.63 kva on AS
  phases AN;
  from R2_12_47_2_node_109;
  to R2_12_47_2_node_220;
  length 109.780;
  configuration ID_62;
}
object overhead_line {
  name R2_12_47_2_ol_70;
// downstream 4607.86 kva on ABCS
  phases ABCN;
  from R2_12_47_2_node_111;
  to R2_12_47_2_node_6;
  length 143.050;
  configuration ID_66;
}
object overhead_line {
  name R2_12_47_2_ol_71;
// downstream 2565.16 kva on ABCS
  phases ABCN;
  from R2_12_47_2_node_112;
  to R2_12_47_2_node_146;
  length 281.070;
  configuration ID_81;
}
object overhead_line {
  name R2_12_47_2_ol_72;
// downstream 5271.55 kva on ABCS
  phases ABCN;
  from R2_12_47_2_node_16;
  to R2_12_47_2_node_17;
  length 282.210;
  configuration ID_66;
}
object overhead_line {
  name R2_12_47_2_ol_73;
// downstream 1137.68 kva on BCS
  phases BCN;
  from R2_12_47_2_node_248;
  to R2_12_47_2_node_14;
  length 563.090;
  configuration ID_73;
}
object overhead_line {
  name R2_12_47_2_ol_74;
// downstream 77.25 kva on AS
  phases AN;
  from R2_12_47_2_node_247;
  to R2_12_47_2_node_115;
  length 926.470;
  configuration ID_62;
}
object overhead_line {
  name R2_12_47_2_ol_75;
// downstream 38.63 kva on AS
  phases AN;
  from R2_12_47_2_node_114;
  to R2_12_47_2_node_116;
  length 466.390;
  configuration ID_62;
}
object overhead_line {
  name R2_12_47_2_ol_76;
// downstream 4871.23 kva on ABCS
  phases ABCN;
  from R2_12_47_2_node_17;
  to R2_12_47_2_node_111;
  length 865.030;
  configuration ID_66;
}
object overhead_line {
  name R2_12_47_2_ol_77;
// downstream 442.96 kva on BS
  phases BN;
  from R2_12_47_2_node_14;
  to R2_12_47_2_node_80;
  length 637.800;
  configuration ID_97;
}
object overhead_line {
  name R2_12_47_2_ol_78;
// downstream 17.04 kva on BS
  phases BN;
  from R2_12_47_2_node_118;
  to R2_12_47_2_node_119;
  length 105.650;
  configuration ID_79;
}
object overhead_line {
  name R2_12_47_2_ol_79;
// downstream 340.74 kva on BS
  phases BN;
  from R2_12_47_2_node_118;
  to R2_12_47_2_node_120;
  length 181.710;
  configuration ID_79;
}
object overhead_line {
  name R2_12_47_2_ol_80;
// downstream 534.46 kva on CS
  phases CN;
  from R2_12_47_2_node_117;
  to R2_12_47_2_node_83;
  length 689.920;
  configuration ID_72;
}
object overhead_line {
  name R2_12_47_2_ol_81;
// downstream 81.97 kva on CS
  phases CN;
  from R2_12_47_2_node_117;
  to R2_12_47_2_node_122;
  length 629.400;
  configuration ID_72;
}
object overhead_line {
  name R2_12_47_2_ol_82;
// downstream 238.52 kva on BS
  phases BN;
  from R2_12_47_2_node_120;
  to R2_12_47_2_node_79;
  length 168.710;
  configuration ID_79;
}
object overhead_line {
  name R2_12_47_2_ol_83;
// downstream 102.22 kva on BS
  phases BN;
  from R2_12_47_2_node_120;
  to R2_12_47_2_node_81;
  length 146.070;
  configuration ID_71;
}
object overhead_line {
  name R2_12_47_2_ol_84;
// downstream 51.11 kva on BS
  phases BN;
  from R2_12_47_2_node_121;
  to R2_12_47_2_node_125;
  length 496.470;
  configuration ID_71;
}
object overhead_line {
  name R2_12_47_2_ol_85;
// downstream 485.27 kva on CS
  phases CN;
  from R2_12_47_2_node_83;
  to R2_12_47_2_node_124;
  length 353.950;
...